Circuit: * F:\Academic\CSE250\Lab 9\AC_Simulation.asc

.OP point found by inspection.

Date: Mon Nov 27 13:54:05 2023
Total elapsed time: 0.069 seconds.

tnom = 27
temp = 27
method = modified trap
totiter = 12034
traniter = 12034
tranpoints = 6018
accept = 6018
rejected = 0
matrix size = 3
fillins = 0
solver = Normal
Matrix Compiler1: 86 bytes object code size  0.0/0.0/[0.0]
Matrix Compiler2:      15 opcodes  0.0/[0.0]/0.0

