Circuit: * F:\Academic\CSE250\LabReport5\Draft3.asc

Direct Newton iteration for .op point succeeded.

Date: Sun Nov 26 00:47:09 2023
Total elapsed time: 0.042 seconds.

tnom = 27
temp = 27
method = trap
totiter = 3
traniter = 0
tranpoints = 0
accept = 0
rejected = 0
matrix size = 8
fillins = 8
solver = Normal
Matrix Compiler1: 622 bytes object code size
Matrix Compiler2: 684 bytes object code size
