Circuit: * F:\Academic\CSE250\LabReport5\Draft2.asc

R2: both pins shorted together -- ignoring.
Direct Newton iteration for .op point succeeded.

Date: Sun Nov 26 00:37:48 2023
Total elapsed time: 0.032 seconds.

tnom = 27
temp = 27
method = trap
totiter = 3
traniter = 0
tranpoints = 0
accept = 0
rejected = 0
matrix size = 7
fillins = 3
solver = Normal
Matrix Compiler1: 304 bytes object code size
Matrix Compiler2: 481 bytes object code size
