Circuit: * F:\Academic\CSE250\LabReport5\Draft1.asc

WARNING: Node N001 is floating.

Direct Newton iteration for .op point succeeded.

Date: Mon Nov 27 10:38:33 2023
Total elapsed time: 0.623 seconds.

tnom = 27
temp = 27
method = modified trap
totiter = 160185
traniter = 160182
tranpoints = 80092
accept = 80080
rejected = 12
matrix size = 4
fillins = 0
solver = Normal
Matrix Compiler1: 100 bytes object code size  0.0/0.0/[0.0]
Matrix Compiler2: off  [0.0]/0.0/0.0

