Circuit: * F:\Academic\CSE250\LabReport5\Schematic1.asc


Date: Thu Nov 30 23:06:27 2023
Total elapsed time: 0.016 seconds.

tnom = 27
temp = 27
method = trap
totiter = 103
traniter = 0
tranpoints = 0
accept = 0
rejected = 0
matrix size = 9
fillins = 3
solver = Normal
Matrix Compiler1:      22 opcodes  0.1/[0.1]/0.1
Matrix Compiler2: 667 bytes object code size  0.1/0.1/[0.1]

