Circuit: * F:\Academic\CSE250\LabReport5\Schematic2.asc

Direct Newton iteration for .op point succeeded.

Date: Thu Nov 30 22:51:08 2023
Total elapsed time: 0.040 seconds.

tnom = 27
temp = 27
method = trap
totiter = 3
traniter = 0
tranpoints = 0
accept = 0
rejected = 0
matrix size = 5
fillins = 1
solver = Normal
Matrix Compiler1: 168 bytes object code size
Matrix Compiler2: 375 bytes object code size
