Circuit: * F:\Academic\CSE250\LabReport5\Schematic3.asc


Date: Thu Nov 30 23:07:42 2023
Total elapsed time: 0.030 seconds.

tnom = 27
temp = 27
method = trap
totiter = 103
traniter = 0
tranpoints = 0
accept = 0
rejected = 0
matrix size = 4
fillins = 0
solver = Normal
Matrix Compiler1: 118 bytes object code size  0.0/0.0/[0.0]
Matrix Compiler2:      20 opcodes  0.0/[0.0]/0.0

