Circuit: * F:\Academic\CSE250\LabReport5\Schematic.asc

Direct Newton iteration for .op point succeeded.

Date: Sun Nov 26 01:00:03 2023
Total elapsed time: 0.368 seconds.

tnom = 27
temp = 27
method = trap
totiter = 3
traniter = 0
tranpoints = 0
accept = 0
rejected = 0
matrix size = 3
fillins = 0
solver = Normal
Matrix Compiler1: 50 bytes object code size
Matrix Compiler2: 175 bytes object code size
