Circuit: * F:\Academic\CSE250\LabTest\Draft2.asc

Direct Newton iteration for .op point succeeded.

Date: Wed Feb 07 21:42:35 2024
Total elapsed time: 0.188 seconds.

tnom = 27
temp = 27
method = modified trap
totiter = 20037
traniter = 20034
tranpoints = 10018
accept = 10018
rejected = 0
matrix size = 4
fillins = 0
solver = Normal
Matrix Compiler1: 64 bytes object code size  0.0/0.0/[0.0]
Matrix Compiler2: 214 bytes object code size  0.0/0.0/[0.0]

