Circuit: * F:\Academic\CSE250\LabTest\Draft1.asc

.OP point found by inspection.

Date: Mon Dec 04 11:47:49 2023
Total elapsed time: 0.367 seconds.

tnom = 27
temp = 27
method = modified trap
totiter = 12044
traniter = 12044
tranpoints = 6023
accept = 6022
rejected = 1
matrix size = 4
fillins = 0
solver = Normal
Matrix Compiler1: 100 bytes object code size  0.0/0.0/[0.0]
Matrix Compiler2: off  [0.0]/0.0/0.1

