Circuit: * F:\Academic\CSE250\Lab 8\Transient.asc

WARNING: Node N001 is floating.

Direct Newton iteration for .op point succeeded.

Date: Sun Dec 03 19:05:55 2023
Total elapsed time: 0.859 seconds.

tnom = 27
temp = 27
method = modified trap
totiter = 160185
traniter = 160182
tranpoints = 80092
accept = 80080
rejected = 12
matrix size = 4
fillins = 0
solver = Normal
Matrix Compiler1: off  [0.0]/0.0/0.0
Matrix Compiler2:      21 opcodes  0.0/[0.0]/0.0

